Version 4
SHEET 1 1004 680
WIRE 368 96 368 -16
WIRE 368 96 176 96
WIRE 592 96 368 96
WIRE 176 240 176 96
WIRE 592 240 592 96
WIRE 80 320 -32 320
WIRE 496 320 432 320
WIRE 432 352 432 320
WIRE 432 352 352 352
WIRE 880 352 768 352
WIRE 80 384 -32 384
WIRE 432 384 432 352
WIRE 496 384 432 384
WIRE 0 0 0 0
FLAG -32 320 VIN1
IOPIN -32 320 In
FLAG -32 384 VIN2
IOPIN -32 384 In
FLAG 880 352 VOUT
IOPIN 880 352 Out
FLAG 368 -16 VDD
IOPIN 368 -16 In
SYMBOL NAND 192 352 R0
SYMATTR InstName X1
SYMBOL NAND 608 352 R0
SYMATTR InstName X2
