Version 4
SHEET 1 1184 892
WIRE 224 -432 144 -432
WIRE 288 -432 224 -432
WIRE 704 -432 624 -432
WIRE 768 -432 704 -432
WIRE -752 -416 -816 -416
WIRE -704 -416 -752 -416
WIRE -752 -336 -816 -336
WIRE -704 -336 -752 -336
WIRE 144 -320 144 -432
WIRE 624 -288 624 -432
WIRE -544 -272 -640 -272
WIRE -464 -272 -544 -272
WIRE -752 -256 -816 -256
WIRE -704 -256 -752 -256
WIRE -32 -240 -96 -240
WIRE 48 -240 -32 -240
WIRE -640 -224 -640 -272
WIRE 400 -208 320 -208
WIRE 528 -208 400 -208
WIRE -32 -176 -96 -176
WIRE 48 -176 -32 -176
WIRE 1040 -176 800 -176
WIRE -816 -144 -848 -144
WIRE -784 -144 -816 -144
WIRE -736 -144 -784 -144
WIRE 400 -144 400 -208
WIRE 528 -144 400 -144
WIRE -448 -112 -464 -112
WIRE -384 -112 -448 -112
WIRE -784 -80 -784 -144
WIRE -736 -80 -784 -80
WIRE 48 -64 -32 -64
WIRE 144 -64 48 -64
WIRE -544 0 -640 0
WIRE -464 0 -544 0
WIRE 144 0 144 -64
WIRE -640 48 -640 0
WIRE 528 48 400 48
WIRE -32 80 -96 80
WIRE 48 80 -32 80
WIRE 1040 80 800 80
WIRE 400 112 400 48
WIRE 400 112 320 112
WIRE 528 112 400 112
WIRE -816 128 -848 128
WIRE -784 128 -816 128
WIRE -736 128 -784 128
WIRE -32 144 -96 144
WIRE 48 144 -32 144
WIRE -448 160 -464 160
WIRE -384 160 -448 160
WIRE -784 192 -784 128
WIRE -736 192 -784 192
WIRE 48 224 -144 224
WIRE 144 224 48 224
WIRE 624 256 624 192
WIRE 736 256 624 256
WIRE 896 256 736 256
WIRE 144 272 144 224
WIRE 736 320 624 320
WIRE 896 320 736 320
WIRE -32 352 -96 352
WIRE 48 352 -32 352
WIRE 432 384 320 384
WIRE 624 384 624 320
WIRE -32 416 -96 416
WIRE 48 416 -32 416
WIRE 432 464 432 384
WIRE 528 464 432 464
WIRE 1040 496 800 496
WIRE 528 528 432 528
WIRE -32 592 -96 592
WIRE 48 592 -32 592
WIRE 432 624 432 528
WIRE 432 624 320 624
WIRE -32 656 -96 656
WIRE 48 656 -32 656
WIRE 48 848 -144 848
WIRE 144 848 144 736
WIRE 144 848 48 848
FLAG -816 -336 VIN1
IOPIN -816 -336 In
FLAG -816 -256 VIN2
IOPIN -816 -256 In
FLAG 1040 496 VOUT
IOPIN 1040 496 Out
FLAG 1040 -176 VOUT>
IOPIN 1040 -176 Out
FLAG 1040 80 VOUT<
IOPIN 1040 80 Out
FLAG -752 -336 VIN1
FLAG -752 -256 VIN2
FLAG -816 -144 VIN1
FLAG -448 -112 NOTA
FLAG -816 128 VIN2
FLAG -448 160 NOTB
FLAG -32 -240 VIN1
FLAG -32 -176 NOTB
FLAG -32 80 NOTA
FLAG -32 144 VIN2
FLAG -32 352 VIN1
FLAG -32 416 VIN2
FLAG -32 592 NOTA
FLAG -32 656 NOTB
FLAG -816 -416 VDD
IOPIN -816 -416 In
FLAG -752 -416 VDD
FLAG -544 -272 VDD
FLAG -544 0 VDD
FLAG 48 -64 VDD
FLAG 224 -432 VDD
FLAG 704 -432 VDD
FLAG 48 224 VDD
FLAG 736 256 VDD
FLAG 736 320 VDD
FLAG 48 848 VDD
SYMBOL NAND -624 -112 R0
SYMATTR InstName X1
SYMBOL NAND -624 160 R0
SYMATTR InstName X2
SYMBOL NAND 160 384 R0
SYMATTR InstName X3
SYMBOL NAND 640 -176 R0
SYMATTR InstName X4
SYMBOL NAND 160 112 R0
SYMATTR InstName X5
SYMBOL NAND 160 624 M180
SYMATTR InstName X6
SYMBOL NAND 640 80 M180
SYMATTR InstName X7
SYMBOL NAND 640 496 R0
SYMATTR InstName X8
SYMBOL NAND 160 -208 R0
SYMATTR InstName X9
TEXT -880 -528 Left 2 !.include 90nm_bulk.txt
