Version 4
SHEET 1 3684 1084
WIRE 2160 -208 1920 -208
WIRE 2352 -208 2160 -208
WIRE 2768 -208 2352 -208
WIRE 1920 -128 1920 -208
WIRE 2352 -128 2352 -208
WIRE 2768 -128 2768 -208
WIRE 1136 -112 1040 -112
WIRE 1232 -112 1136 -112
WIRE 1712 -64 1632 -64
WIRE 1808 -64 1712 -64
WIRE 2240 -64 2160 -64
WIRE 2656 -64 2576 -64
WIRE 2112 -32 2064 -32
WIRE 2160 -32 2160 -64
WIRE 2160 -32 2112 -32
WIRE 2512 -32 2496 -32
WIRE 2576 -32 2576 -64
WIRE 2576 -32 2512 -32
WIRE 3056 -32 2912 -32
WIRE 1712 0 1632 0
WIRE 1808 0 1712 0
WIRE 2240 0 2176 0
WIRE 2656 0 2592 0
WIRE 1376 16 1200 16
WIRE 1456 16 1376 16
WIRE 976 32 848 32
WIRE 2128 48 2080 48
WIRE 2176 48 2176 0
WIRE 2176 48 2128 48
WIRE 2528 48 2480 48
WIRE 2592 48 2592 0
WIRE 2592 48 2528 48
WIRE 1200 64 1200 16
WIRE 976 80 976 32
WIRE 1392 112 1200 112
WIRE 1456 112 1392 112
WIRE 2288 128 1856 128
WIRE 2768 128 2288 128
WIRE 2960 128 2768 128
WIRE 3184 128 2960 128
WIRE 2288 144 2288 128
WIRE 1856 176 1856 128
WIRE 2768 176 2768 128
WIRE 976 192 976 144
WIRE 976 192 848 192
WIRE 1200 208 1200 160
WIRE 1392 208 1200 208
WIRE 1456 208 1392 208
WIRE 2128 208 2048 208
WIRE 2192 208 2128 208
WIRE 2208 208 2192 208
WIRE 3184 208 3184 128
WIRE 1680 240 1632 240
WIRE 1744 240 1680 240
WIRE 2672 240 2416 240
WIRE 1376 256 1200 256
WIRE 1456 256 1376 256
WIRE 976 272 848 272
WIRE 2192 272 2000 272
WIRE 3088 272 2896 272
WIRE 1200 304 1200 256
WIRE 1680 304 1632 304
WIRE 1744 304 1680 304
WIRE 2672 304 2560 304
WIRE 3504 304 3312 304
WIRE 976 320 976 272
WIRE 3088 336 3040 336
WIRE 1392 352 1200 352
WIRE 1456 352 1392 352
WIRE 2352 368 2272 368
WIRE 2416 368 2352 368
WIRE 2832 416 2784 416
WIRE 2896 416 2832 416
WIRE 976 432 976 384
WIRE 976 432 848 432
WIRE 2176 432 2096 432
WIRE 2304 432 2176 432
WIRE 1200 448 1200 400
WIRE 1392 448 1200 448
WIRE 1456 448 1392 448
WIRE 2560 464 2560 304
WIRE 2752 480 2688 480
WIRE 2784 480 2752 480
WIRE 1376 496 1200 496
WIRE 1456 496 1376 496
WIRE 2176 496 2096 496
WIRE 2304 496 2176 496
WIRE 976 512 848 512
WIRE 3040 512 3040 336
WIRE 1200 544 1200 496
WIRE 2752 544 2688 544
WIRE 2784 544 2752 544
WIRE 976 560 976 512
WIRE 1392 592 1200 592
WIRE 1456 592 1392 592
WIRE 2304 608 1872 608
WIRE 2592 608 2304 608
WIRE 2784 608 2592 608
WIRE 3200 608 2784 608
WIRE 2304 640 2304 608
WIRE 976 672 976 624
WIRE 976 672 848 672
WIRE 1200 672 1200 640
WIRE 1392 672 1200 672
WIRE 1456 672 1392 672
WIRE 1872 672 1872 608
WIRE 2784 672 2784 608
WIRE 2144 704 2064 704
WIRE 2208 704 2144 704
WIRE 2224 704 2208 704
WIRE 3200 704 3200 608
WIRE 1376 720 1200 720
WIRE 1456 720 1376 720
WIRE 1696 736 1648 736
WIRE 1760 736 1696 736
WIRE 2688 736 2432 736
WIRE 976 752 848 752
WIRE 2208 768 2016 768
WIRE 3104 768 2912 768
WIRE 1200 784 1200 720
WIRE 976 800 976 752
WIRE 1696 800 1648 800
WIRE 1760 800 1696 800
WIRE 2688 800 2576 800
WIRE 3520 800 3328 800
WIRE 1392 832 1200 832
WIRE 1456 832 1392 832
WIRE 3104 832 3056 832
WIRE 2352 864 2304 864
WIRE 2432 864 2352 864
WIRE 976 912 976 864
WIRE 976 912 848 912
WIRE 2832 912 2784 912
WIRE 2912 912 2832 912
WIRE 2192 928 2112 928
WIRE 2320 928 2192 928
WIRE 1200 944 1200 880
WIRE 1392 944 1200 944
WIRE 1456 944 1392 944
WIRE 2576 960 2576 800
WIRE 2768 976 2704 976
WIRE 2800 976 2768 976
WIRE 2192 992 2112 992
WIRE 2320 992 2192 992
WIRE 3056 1008 3056 832
WIRE 2768 1040 2704 1040
WIRE 2800 1040 2768 1040
FLAG 848 752 VIN1.0
IOPIN 848 752 In
FLAG 848 512 VIN1.1
IOPIN 848 512 In
FLAG 848 272 VIN1.2
IOPIN 848 272 In
FLAG 848 32 VIN1.3
IOPIN 848 32 In
FLAG 848 912 VIN2.0
IOPIN 848 912 In
FLAG 848 432 VIN2.2
IOPIN 848 432 In
FLAG 848 672 VIN2.1
IOPIN 848 672 In
FLAG 848 192 VIN2.3
IOPIN 848 192 In
FLAG 1040 -112 VDD
IOPIN 1040 -112 In
FLAG 3056 -32 VOUT
IOPIN 3056 -32 Out
FLAG 3504 304 VOUT>
IOPIN 3504 304 Out
FLAG 3520 800 VOUT<
IOPIN 3520 800 Out
FLAG 1392 112 EQ1
FLAG 1392 352 EQ2
FLAG 1392 592 EQ3
FLAG 1392 832 EQ4
FLAG 1712 -64 EQ1
FLAG 1712 0 EQ2
FLAG 2128 48 EQ3
FLAG 2528 48 EQ4
FLAG 2112 -32 EQ12
FLAG 2512 -32 EQ123
FLAG 1376 16 BIG1
FLAG 1376 256 BIG2
FLAG 1376 496 BIG3
FLAG 1376 720 BIG4
FLAG 2128 208 BIG1
FLAG 1680 240 EQ1
FLAG 1680 304 BIG2
FLAG 2176 432 EQ12
FLAG 2176 496 BIG3
FLAG 2752 480 EQ123
FLAG 2752 544 BIG4
FLAG 2144 704 SMALL1
FLAG 1696 736 EQ1
FLAG 1696 800 SMALL2
FLAG 2192 928 EQ12
FLAG 2192 992 SMALL3
FLAG 2768 976 EQ123
FLAG 2768 1040 SMALL4
FLAG 1392 208 SMALL1
FLAG 1392 448 SMALL2
FLAG 1392 672 SMALL3
FLAG 1392 944 SMALL4
FLAG 1136 -112 VDD
FLAG 2160 -208 VDD
FLAG 2960 128 VDD
FLAG 2352 368 VDD
FLAG 2832 416 VDD
FLAG 2592 608 VDD
FLAG 2352 864 VDD
FLAG 2832 912 VDD
SYMBOL Comparator 1072 112 R0
SYMATTR InstName X1
SYMBOL Comparator 1072 352 R0
SYMATTR InstName X2
SYMBOL Comparator 1072 592 R0
SYMATTR InstName X3
SYMBOL Comparator 1072 832 R0
SYMATTR InstName X4
SYMBOL ANDbyNAND 1920 -32 R0
SYMATTR InstName X5
SYMBOL ANDbyNAND 2352 -32 R0
SYMATTR InstName X6
SYMBOL ANDbyNAND 2768 -32 R0
SYMATTR InstName X7
SYMBOL ORbyNAND 2272 240 R0
SYMATTR InstName X8
SYMBOL ANDbyNAND 1856 272 R0
SYMATTR InstName X9
SYMBOL ORbyNAND 2752 272 R0
SYMATTR InstName X10
SYMBOL ANDbyNAND 2416 464 R0
SYMATTR InstName X11
SYMBOL ORbyNAND 3168 304 R0
SYMATTR InstName X12
SYMBOL ANDbyNAND 2896 512 R0
SYMATTR InstName X13
SYMBOL ORbyNAND 2288 736 R0
SYMATTR InstName X14
SYMBOL ANDbyNAND 1872 768 R0
SYMATTR InstName X15
SYMBOL ORbyNAND 2768 768 R0
SYMATTR InstName X16
SYMBOL ANDbyNAND 2432 960 R0
SYMATTR InstName X17
SYMBOL ORbyNAND 3184 800 R0
SYMATTR InstName X18
SYMBOL ANDbyNAND 2912 1008 R0
SYMATTR InstName X19
