Version 4
SHEET 1 880 680
SYMBOL Comparator4bit 176 16 R0
SYMATTR InstName X1
