Version 4
SHEET 1 880 680
WIRE -176 -144 -176 -224
WIRE 208 -128 208 -176
WIRE 496 -112 336 -112
WIRE 208 -16 208 -128
WIRE 336 0 336 -112
WIRE -176 16 -176 -64
WIRE 112 16 -176 16
WIRE 496 48 496 -32
WIRE 544 48 496 48
WIRE 656 48 544 48
WIRE 544 64 544 48
WIRE 112 80 -176 80
WIRE 656 80 656 48
WIRE 496 128 496 48
WIRE -176 160 -176 80
WIRE 336 208 336 96
WIRE 496 208 336 208
WIRE 544 208 544 144
WIRE 656 208 656 144
WIRE 240 304 240 272
WIRE -176 320 -176 240
WIRE 240 464 240 384
FLAG 240 464 0
FLAG 240 272 VDD
FLAG 544 208 0
FLAG 656 208 0
FLAG 208 -128 VDD
FLAG -176 320 0
FLAG -176 -224 0
SYMBOL voltage -176 144 R0
WINDOW 123 0 0 Left 0
WINDOW 39 0 0 Left 0
SYMATTR InstName V1
SYMATTR Value PULSE(0 1 1n 10p 10p 2n 4n)
SYMBOL res 528 48 R0
SYMATTR InstName R1
SYMATTR Value 100k
SYMBOL cap 640 80 R0
SYMATTR InstName C1
SYMATTR Value 100f
SYMBOL voltage 240 288 R0
WINDOW 123 0 0 Left 0
WINDOW 39 0 0 Left 0
SYMATTR InstName VDD1
SYMATTR Value 1
SYMBOL voltage -176 -48 M180
WINDOW 123 0 0 Left 0
WINDOW 39 0 0 Left 0
SYMATTR InstName V2
SYMATTR Value PULSE(0 1 2n 10p 10p 2n 4n)
SYMBOL Comparator 208 48 R0
SYMATTR InstName X1
TEXT -112 -280 Left 2 !.include 90nm_bulk.txt
TEXT -224 568 Left 2 !.tran 0 16n 0 1p
