Version 4
SHEET 1 1100 680
WIRE 208 -80 -80 -80
WIRE 416 -80 416 -160
WIRE 416 -80 208 -80
WIRE 672 -80 416 -80
WIRE 208 0 208 -80
WIRE 112 80 32 80
WIRE 128 80 112 80
WIRE 512 112 384 112
WIRE 672 112 672 -80
WIRE 32 144 32 80
WIRE 32 144 -304 144
WIRE 112 144 32 144
WIRE 512 192 512 112
WIRE 576 192 512 192
WIRE 976 224 848 224
WIRE -80 256 -80 -80
WIRE 208 256 -80 256
WIRE 576 256 512 256
WIRE 32 336 -320 336
WIRE 112 336 32 336
WIRE 512 368 512 256
WIRE 512 368 384 368
WIRE 32 400 32 336
WIRE 112 400 32 400
WIRE 656 608 0 0
FLAG -304 144 VIN1
IOPIN -304 144 In
FLAG -320 336 VIN2
IOPIN -320 336 In
FLAG 416 -160 VDD
IOPIN 416 -160 In
FLAG 976 224 VOUT
IOPIN 976 224 Out
SYMBOL NAND 224 112 R0
SYMATTR InstName X1
SYMBOL NAND 224 368 R0
SYMATTR InstName X2
SYMBOL NAND 688 224 R0
SYMATTR InstName X3
