Version 4
SHEET 1 880 680
WIRE 176 32 176 -32
WIRE 176 32 -48 32
WIRE 400 32 176 32
WIRE -48 80 -48 32
WIRE 400 128 400 32
WIRE -144 160 -288 160
WIRE 304 192 128 192
WIRE 672 192 560 192
WIRE -144 224 -288 224
FLAG -288 160 VIN1
IOPIN -288 160 In
FLAG -288 224 VIN2
IOPIN -288 224 In
FLAG 176 -32 VDD
IOPIN 176 -32 In
FLAG 672 192 VOUT
IOPIN 672 192 Out
SYMBOL NAND -32 192 R0
SYMATTR InstName X1
SYMBOL NOT 400 192 R0
SYMATTR InstName X2
