Version 4
SHEET 1 880 680
WIRE -368 -160 -368 -240
WIRE 16 -144 16 -192
WIRE 16 -80 16 -144
WIRE -368 0 -368 -80
WIRE -80 0 -368 0
WIRE 352 32 192 32
WIRE 464 32 352 32
WIRE 352 48 352 32
WIRE -80 64 -368 64
WIRE 464 64 464 32
WIRE -368 144 -368 64
WIRE 352 192 352 128
WIRE 464 192 464 128
WIRE 192 224 192 192
WIRE 192 256 192 224
WIRE -368 304 -368 224
WIRE 192 416 192 336
FLAG 192 416 0
FLAG 192 224 VDD
FLAG 352 192 0
FLAG 464 192 0
FLAG 16 -144 VDD
FLAG -368 304 0
FLAG -368 -240 0
SYMBOL voltage -368 128 R0
WINDOW 123 0 0 Left 0
WINDOW 39 0 0 Left 0
SYMATTR InstName V1
SYMATTR Value PULSE(0 1 1n 10p 10p 2n 4n)
SYMBOL res 336 32 R0
SYMATTR InstName R1
SYMATTR Value 100k
SYMBOL cap 448 64 R0
SYMATTR InstName C1
SYMATTR Value 100f
SYMBOL voltage 192 240 R0
WINDOW 123 0 0 Left 0
WINDOW 39 0 0 Left 0
SYMATTR InstName VDD1
SYMATTR Value 1
SYMBOL voltage -368 -64 M180
WINDOW 123 0 0 Left 0
WINDOW 39 0 0 Left 0
SYMATTR InstName V2
SYMATTR Value PULSE(0 1 2n 10p 10p 2n 4n)
SYMBOL AND 32 32 R0
SYMATTR InstName X1
TEXT -304 -296 Left 2 !.include 90nm_bulk.txt
TEXT -416 552 Left 2 !.tran 0 8n 0 1p
