Version 4
SHEET 1 880 680
WIRE -416 -352 -416 -432
WIRE -32 -336 -32 -384
WIRE -32 -272 -32 -336
WIRE -416 -192 -416 -272
WIRE -128 -192 -416 -192
WIRE 304 -160 144 -160
WIRE 416 -160 304 -160
WIRE 304 -144 304 -160
WIRE -128 -128 -416 -128
WIRE 416 -128 416 -160
WIRE -416 -48 -416 -128
WIRE 304 0 304 -64
WIRE 416 0 416 -64
WIRE 144 32 144 0
WIRE 144 64 144 32
WIRE -416 112 -416 32
WIRE 144 224 144 144
FLAG 144 224 0
FLAG 144 32 VDD
FLAG 304 0 0
FLAG 416 0 0
FLAG -32 -336 VDD
FLAG -416 112 0
FLAG -416 -432 0
SYMBOL voltage -416 -64 R0
WINDOW 123 0 0 Left 0
WINDOW 39 0 0 Left 0
SYMATTR InstName V1
SYMATTR Value PULSE(0 1 1n 10p 10p 2n 4n)
SYMBOL res 288 -160 R0
SYMATTR InstName R1
SYMATTR Value 100k
SYMBOL cap 400 -128 R0
SYMATTR InstName C1
SYMATTR Value 100f
SYMBOL voltage 144 48 R0
WINDOW 123 0 0 Left 0
WINDOW 39 0 0 Left 0
SYMATTR InstName VDD1
SYMATTR Value 1
SYMBOL NAND -16 -160 R0
SYMATTR InstName X1
SYMBOL voltage -416 -256 M180
WINDOW 123 0 0 Left 0
WINDOW 39 0 0 Left 0
SYMATTR InstName V2
SYMATTR Value PULSE(0 1 2n 10p 10p 2n 4n)
TEXT -352 -488 Left 2 !.include 90nm_bulk.txt
TEXT -464 360 Left 2 !.tran 0 8n 0 1p
