Version 4
SHEET 1 880 680
WIRE -240 -64 -240 -144
WIRE 144 -48 144 -96
WIRE 144 16 144 -48
WIRE -240 96 -240 16
WIRE 48 96 -240 96
WIRE 480 128 320 128
WIRE 592 128 480 128
WIRE 480 144 480 128
WIRE 48 160 -240 160
WIRE 592 160 592 128
WIRE -240 240 -240 160
WIRE 480 288 480 224
WIRE 592 288 592 224
WIRE 320 320 320 288
WIRE 320 352 320 320
WIRE -240 400 -240 320
WIRE 320 512 320 432
FLAG 320 512 0
FLAG 320 320 VDD
FLAG 480 288 0
FLAG 592 288 0
FLAG 144 -48 VDD
FLAG -240 400 0
FLAG -240 -144 0
SYMBOL voltage -240 224 R0
WINDOW 123 0 0 Left 0
WINDOW 39 0 0 Left 0
SYMATTR InstName V1
SYMATTR Value PULSE(0 1 1n 10p 10p 2n 4n)
SYMBOL res 464 128 R0
SYMATTR InstName R1
SYMATTR Value 100k
SYMBOL cap 576 160 R0
SYMATTR InstName C1
SYMATTR Value 100f
SYMBOL voltage 320 336 R0
WINDOW 123 0 0 Left 0
WINDOW 39 0 0 Left 0
SYMATTR InstName VDD1
SYMATTR Value 1
SYMBOL voltage -240 32 M180
WINDOW 123 0 0 Left 0
WINDOW 39 0 0 Left 0
SYMATTR InstName V2
SYMATTR Value PULSE(0 1 2n 10p 10p 2n 4n)
SYMBOL NOR 160 128 R0
SYMATTR InstName X1
TEXT -176 -200 Left 2 !.include 90nm_bulk.txt
TEXT -288 648 Left 2 !.tran 0 20n 0 1p
