Version 4
SHEET 1 880 680
WIRE 48 -160 48 -208
WIRE 48 -96 48 -160
WIRE -48 -32 -336 -32
WIRE 368 -32 208 -32
WIRE 480 -32 368 -32
WIRE 368 -16 368 -32
WIRE 480 0 480 -32
WIRE -336 48 -336 -32
WIRE 96 80 96 48
WIRE 96 112 96 80
WIRE 368 128 368 64
WIRE 480 128 480 64
WIRE -336 208 -336 128
WIRE 96 272 96 192
FLAG 96 272 0
FLAG 96 80 VDD
FLAG 368 128 0
FLAG 480 128 0
FLAG 48 -160 VDD
FLAG -336 208 0
SYMBOL voltage -336 32 R0
WINDOW 123 0 0 Left 0
WINDOW 39 0 0 Left 0
SYMATTR InstName V1
SYMATTR Value PULSE(0 1 1n 10p 10p 2n 4n)
SYMBOL res 352 -32 R0
SYMATTR InstName R1
SYMATTR Value 100k
SYMBOL cap 464 0 R0
SYMATTR InstName C1
SYMATTR Value 100f
SYMBOL voltage 96 96 R0
WINDOW 123 0 0 Left 0
WINDOW 39 0 0 Left 0
SYMATTR InstName VDD1
SYMATTR Value 1
SYMBOL NOT 48 -32 R0
SYMATTR InstName X1
TEXT -272 -392 Left 2 !.include 90nm_bulk.txt
TEXT -384 456 Left 2 !.tran 0 8n 0 1p
