Version 4
SHEET 1 972 680
WIRE 352 32 352 -32
WIRE 352 32 128 32
WIRE 576 32 352 32
WIRE 128 80 128 32
WIRE 576 128 576 32
WIRE 32 160 -112 160
WIRE 480 192 304 192
WIRE 848 192 736 192
WIRE 32 224 -112 224
FLAG -112 160 VIN1
IOPIN -112 160 In
FLAG -112 224 VIN2
IOPIN -112 224 In
FLAG 352 -32 VDD
IOPIN 352 -32 In
FLAG 848 192 VOUT
IOPIN 848 192 Out
SYMBOL NOT 576 192 R0
SYMATTR InstName X2
SYMBOL NOR 144 192 R0
SYMATTR InstName X1
