Version 4
SHEET 1 880 680
WIRE -416 -272 -416 -352
WIRE -32 -256 -32 -304
WIRE -32 -192 -32 -256
WIRE -416 -112 -416 -192
WIRE -128 -112 -416 -112
WIRE 304 -80 144 -80
WIRE 416 -80 304 -80
WIRE 304 -64 304 -80
WIRE -128 -48 -416 -48
WIRE 416 -48 416 -80
WIRE -416 32 -416 -48
WIRE 304 80 304 16
WIRE 416 80 416 16
WIRE 144 112 144 80
WIRE 144 144 144 112
WIRE -416 192 -416 112
WIRE 144 304 144 224
FLAG 144 304 0
FLAG 144 112 VDD
FLAG 304 80 0
FLAG 416 80 0
FLAG -32 -256 VDD
FLAG -416 192 0
FLAG -416 -352 0
SYMBOL voltage -416 16 R0
WINDOW 123 0 0 Left 0
WINDOW 39 0 0 Left 0
SYMATTR InstName V1
SYMATTR Value PULSE(0 1 1n 10p 10p 2n 4n)
SYMBOL res 288 -80 R0
SYMATTR InstName R1
SYMATTR Value 100k
SYMBOL cap 400 -48 R0
SYMATTR InstName C1
SYMATTR Value 100f
SYMBOL voltage 144 128 R0
WINDOW 123 0 0 Left 0
WINDOW 39 0 0 Left 0
SYMATTR InstName VDD1
SYMATTR Value 1
SYMBOL voltage -416 -176 M180
WINDOW 123 0 0 Left 0
WINDOW 39 0 0 Left 0
SYMATTR InstName V2
SYMATTR Value PULSE(0 1 2n 10p 10p 2n 4n)
SYMBOL OR -16 -80 R0
SYMATTR InstName X1
TEXT -352 -408 Left 2 !.include 90nm_bulk.txt
TEXT -464 440 Left 2 !.tran 0 8n 0 1p
